 16
-234.494298 -234.527461 -234.592352
C -0.379248 -1.407261 0.663075
C -1.254539 -0.799703 -0.227493
C -1.300292 0.597018 -0.401987
C -0.453292 1.451289 0.293329
C 1.658855 -0.651341 -0.053845
C 1.565003 0.710674 -0.326124
H -1.775048 -1.422776 -0.953449
H -0.095895 -0.920463 1.589077
H -0.278530 -2.489188 0.672032
H 2.141635 -0.987735 0.859235
H 1.639036 -1.377023 -0.858248
H 1.428368 1.050683 -1.345928
H 2.038774 1.431035 0.335522
H -0.431602 2.511342 0.054480
H -0.140120 1.214882 1.304459
H -1.856866 0.988877 -1.250718

